Circuit: * D:\UCT\OneDrive - University of Cape Town\EEE4022S\LTSpice\bandpassCascade.asc

WARNING: Node N022 is floating.

WARNING: Less than two connections to node N022.  This node is used by C17.
WARNING: Less than two connections to node N034.  This node is used by R28.
Instance "m:u13:14": Length shorter than recommended for a level 1 MOSFET.
Instance "m:u13:12": Length shorter than recommended for a level 1 MOSFET.
Instance "m:u12:14": Length shorter than recommended for a level 1 MOSFET.
Instance "m:u12:12": Length shorter than recommended for a level 1 MOSFET.
Instance "m:u11:14": Length shorter than recommended for a level 1 MOSFET.
Instance "m:u11:12": Length shorter than recommended for a level 1 MOSFET.
Direct Newton iteration failed to find .op point.  (Use ".option noopiter" to skip.)
Starting Gmin stepping
Increasing initial diagonal Gmin to 100
Increasing initial diagonal Gmin to 1000
Gmin = 1000
Gmin = 107.374
Gmin = 11.5292
vernier = 0.5
vernier = 0.25
Gmin = 2.41785
vernier = 0.125
vernier = 0.0625
vernier = 0.03125
vernier = 0.015625
vernier = 0.0078125
vernier = 0.00390625
vernier = 0.00195313
vernier = 0.000976563
vernier = 0.000488281
Gmin = 0
Gmin = 0
Gmin stepping failed

Starting source stepping with srcstepmethod=0
Source Step = 3.0303%
vernier = 0.25
Source Step = 0.0177557%
Starting source stepping with srcstepmethod=1
Source Step = 3.0303%
vernier = 0.25
Source stepping failed

Pseudo Transient failed in finding the operating point at 5 µs.
Trouble finding operating point....skipping operating point for Transient analysis.
Changing Tseed to 1e-007
Changing Tseed to 1e-009
Changing Tseed to 1e-006
Changing Tseed to 1e-010
Changing Tseed to 1e-005
Changing Tseed to 1e-011
Changing Tseed to 0.0001
Changing Tseed to 1e-012
Changing Tseed to 0.001
Changing Tseed to 1e-013
Changing Tseed to 0.01
Changing Tseed to 1e-014
Fatal Error: Analysis:  Time step too small; initial timepoint: trouble with node "u11:21"

