Circuit: * D:\UCT\OneDrive - University of Cape Town\EEE4022S\LTSpice\bandpassNew.asc

WARNING: Less than two connections to node N009.  This node is used by R7.
Direct Newton iteration failed to find .op point.  (Use ".option noopiter" to skip.)
Starting Gmin stepping
Gmin = 10
Gmin = 1.07374
Gmin = 0.115292
Gmin = 0.0123794
Gmin = 0.00132923
Gmin = 0.000142725
Gmin = 1.5325e-005
Gmin = 1.6455e-006
Gmin = 1.76685e-007
vernier = 0.5
vernier = 0.25
vernier = 0.125
vernier = 0.0625
vernier = 0.03125
vernier = 0.015625
vernier = 0.0078125
Gmin = 1.13078e-007
vernier = 0.00390625
vernier = 0.00195313
vernier = 0.000976563
vernier = 0.000488281
Gmin = 0
Gmin stepping failed

Starting source stepping with srcstepmethod=0
Source Step = 3.0303%
Source Step = 33.3333%
Source Step = 63.6364%
Source Step = 93.9394%
vernier = 0.25
Source Step = 91.2879%
Source Step = 91.7614%
Source Step = 92.2348%
Source Step = 92.7083%
Source Step = 93.1818%
vernier = 0.0234375
Source Step = 93.821%
Source Step = 94.5313%
Source Step = 95.2415%
Source Step = 95.9517%
Source Step = 96.6619%
vernier = 0.0351563
Source Step = 97.5852%
Source Step = 98.6506%
Source Step = 99.7159%
Source stepping succeeded in finding the operating point.


Date: Sun Aug 25 23:05:27 2024
Total elapsed time: 0.100 seconds.

tnom = 27
temp = 27
method = trap
totiter = 2787
traniter = 0
tranpoints = 0
accept = 0
rejected = 0
matrix size = 37
fillins = 49
solver = Normal
Matrix Compiler1:     224 opcodes
Matrix Compiler2: off  [0.3]/0.5/0.5

