Circuit: * D:\UCT\OneDrive - University of Cape Town\EEE4022S\LTSpice\Draft1.asc

Direct Newton iteration failed to find .op point.  (Use ".option noopiter" to skip.)
Starting Gmin stepping
Gmin = 10
Gmin = 1.07374
Gmin = 0.115292
Gmin = 0.0123794
Gmin = 0.00132923
Gmin = 0.000142725
Gmin = 1.5325e-005
Gmin = 1.6455e-006
vernier = 0.5
Gmin = 3.78697e-007
vernier = 0.666667
vernier = 0.888888
Gmin = 7.94338e-008
vernier = 1
Gmin = 9.33136e-009
Gmin = 1.00195e-009
Gmin = 1.07583e-010
Gmin = 1.15517e-011
Gmin = 1.24035e-012
Gmin = 1.33182e-013
Gmin = 0
Gmin stepping succeeded in finding the operating point.


Date: Mon Aug 26 13:06:11 2024
Total elapsed time: 0.194 seconds.

tnom = 27
temp = 27
method = modified trap
totiter = 18867
traniter = 18353
tranpoints = 5474
accept = 3998
rejected = 1476
matrix size = 12
fillins = 8
solver = Normal
Matrix Compiler1: 728 bytes object code size  0.3/0.2/[0.1]
Matrix Compiler2: 1.07 KB object code size  0.2/0.2/[0.1]

