Circuit: * D:\UCT\OneDrive - University of Cape Town\EEE4022S\LTSpice\draftTx.asc

Direct Newton iteration for .op point succeeded.

Date: Sat Aug 24 19:38:55 2024
Total elapsed time: 0.069 seconds.

tnom = 27
temp = 27
method = trap
totiter = 48
traniter = 0
tranpoints = 0
accept = 0
rejected = 0
matrix size = 20
fillins = 19
solver = Normal
Matrix Compiler1:     159 opcodes
Matrix Compiler2:     171 opcodes
