Circuit: * D:\UCT\OneDrive - University of Cape Town\EEE4022S\LTSpice\draftTxSallen.asc

Direct Newton iteration for .op point succeeded.

Date: Sat Aug 24 19:40:01 2024
Total elapsed time: 0.069 seconds.

tnom = 27
temp = 27
method = trap
totiter = 12
traniter = 0
tranpoints = 0
accept = 0
rejected = 0
matrix size = 23
fillins = 37
solver = Normal
Matrix Compiler1:     155 opcodes
Matrix Compiler2: 2.84 KB object code size
