Circuit: * D:\UCT\OneDrive - University of Cape Town\EEE4022S\LTSpice\Draft2.asc

Direct Newton iteration for .op point succeeded.

Date: Thu Aug 08 14:22:51 2024
Total elapsed time: 0.047 seconds.

tnom = 27
temp = 27
method = modified trap
totiter = 2100
traniter = 2082
tranpoints = 1042
accept = 1042
rejected = 0
matrix size = 29
fillins = 32
solver = Normal
Matrix Compiler1: 2.84 KB object code size  0.4/0.2/[0.2]
Matrix Compiler2: off  [0.2]/0.3/0.2

