Circuit: * D:\UCT\OneDrive - University of Cape Town\EEE4022S\LTSpice\Draft3.asc

.OP point found by inspection.

Date: Tue Aug 27 11:41:22 2024
Total elapsed time: 0.068 seconds.

tnom = 27
temp = 27
method = modified trap
totiter = 11754
traniter = 11754
tranpoints = 3761
accept = 2543
rejected = 1218
matrix size = 5
fillins = 0
solver = Normal
Matrix Compiler1: 150 bytes object code size  0.0/0.0/[0.0]
Matrix Compiler2: 321 bytes object code size  0.0/0.1/[0.0]

