Circuit: * D:\UCT\OneDrive - University of Cape Town\EEE4022S\LTSpice\invertingAmplifier.asc

Direct Newton iteration failed to find .op point.  (Use ".option noopiter" to skip.)
Starting Gmin stepping
Gmin = 10
Gmin = 1.07374
Gmin = 0.115292
Gmin = 0.0123794
Gmin = 0.00132923
Gmin = 0.000142725
Gmin = 1.5325e-005
Gmin = 1.6455e-006
Gmin = 1.76685e-007
vernier = 0.5
vernier = 0.25
vernier = 0.333333
Gmin = 1.33829e-007
vernier = 0.444444
Gmin = 5.29605e-008
vernier = 0.592592
vernier = 0.790123
Gmin = 1.21157e-008
vernier = 1
Gmin = 1.47951e-009
Gmin = 1.58861e-010
Gmin = 1.70576e-011
Gmin = 1.83154e-012
Gmin = 1.9666e-013
Gmin = 0
Gmin stepping succeeded in finding the operating point.


Date: Mon Aug 26 14:47:52 2024
Total elapsed time: 0.107 seconds.

tnom = 27
temp = 27
method = modified trap
totiter = 4138
traniter = 3501
tranpoints = 1609
accept = 977
rejected = 632
matrix size = 12
fillins = 8
solver = Normal
Matrix Compiler1: 728 bytes object code size  0.2/0.2/[0.1]
Matrix Compiler2: 1.07 KB object code size  0.2/0.2/[0.1]

