Circuit: * D:\UCT\OneDrive - University of Cape Town\EEE4022S\LTSpice\RxNew.asc

WARNING: Node N022 is floating.
WARNING: Node N047 is floating.

WARNING: Less than two connections to node N022.  This node is used by C17.
WARNING: Less than two connections to node N038.  This node is used by R28.
WARNING: Less than two connections to node N047.  This node is used by C26.
Direct Newton iteration failed to find .op point.  (Use ".option noopiter" to skip.)
Starting Gmin stepping
Gmin = 10
Gmin = 1.07374
vernier = 0.5
vernier = 0.25
vernier = 0.125
vernier = 0.0625
Gmin = 1.12184
vernier = 0.03125
vernier = 0.015625
Gmin = 1.05835
vernier = 0.0208333
vernier = 0.0104167
Gmin = 1.03119
vernier = 0.00520833
vernier = 0.00694444
vernier = 0.00347222
Gmin = 1.02539
vernier = 0.00462963
vernier = 0.00231481
Gmin = 1.01977
vernier = 0.00308642
vernier = 0.00154321
vernier = 0.00205761
Gmin = 1.01572
vernier = 0.00102881
vernier = 0.00137174
Gmin = 1.01319
vernier = 0.00068587
Gmin = 1.01129
vernier = 0.000914493
vernier = 0.00121932
vernier = 0.000609662
Gmin = 1.00959
vernier = 0.000812882
vernier = 0.000406441
Gmin = 1.00862
vernier = 0.000541921
vernier = 0.000722562
vernier = 0.000541921
Gmin = 1.00752
vernier = 0.000406441
vernier = 0.000541921
vernier = 0.000406441
Gmin = 1.00694
vernier = 0.000541921
vernier = 0.000406441
Gmin = 0
Gmin stepping failed

Starting source stepping with srcstepmethod=0
Source Step = 3.0303%
Source Step = 33.3333%
Source Step = 58.3333%
Source Step = 60.0142%
vernier = 0.000976563
Source Step = 60.032%
Source Step = 60.0616%
Source Step = 60.0911%
Source Step = 60.1207%
Source Step = 60.1503%
Source Step = 60.1799%
Source Step = 60.2095%
vernier = 0.00146484
Source Step = 60.248%
Source Step = 60.2924%
Source Step = 60.3368%
Source Step = 60.3812%
Source Step = 60.4255%
vernier = 0.00219727
Source Step = 60.481%
Source Step = 60.5476%
Source Step = 60.6142%
Source Step = 60.6808%
Source Step = 60.7474%
Source Step = 60.814%
Source Step = 60.8805%
Source Step = 60.9471%
vernier = 0.0032959
Source Step = 61.047%
Source Step = 61.1469%
Source Step = 61.2467%
Source Step = 61.3466%
Source Step = 61.4465%
vernier = 0.00494385
Source Step = 61.5913%
Source Step = 61.7411%
Source Step = 61.8909%
Source Step = 62.0408%
Source Step = 62.1906%
vernier = 0.00741577
Source Step = 62.4003%
Source Step = 62.625%
Source Step = 62.8497%
Source Step = 63.0745%
Source Step = 63.2992%
vernier = 0.0111237
Source Step = 63.6026%
Source Step = 63.9396%
Source Step = 64.2767%
Source Step = 64.6138%
Source Step = 64.9509%
vernier = 0.0166855
Source Step = 65.3891%
Source Step = 65.8947%
Source Step = 66.2044%
Source Step = 66.236%
Source Step = 66.2676%
Source Step = 66.2992%
Source Step = 66.3308%
Source Step = 66.3624%
vernier = 0.00156426
Source Step = 66.4098%
Source Step = 66.4572%
Source Step = 66.5046%
Source Step = 66.552%
Source Step = 66.5994%
vernier = 0.0023464
Source Step = 66.6682%
Source Step = 66.7393%
Source Step = 66.8104%
Source Step = 66.8815%
Source Step = 66.9526%
vernier = 0.00351959
Source Step = 67.0521%
Source Step = 67.1588%
Source Step = 67.2654%
Source Step = 67.3721%
Source Step = 67.4787%
vernier = 0.00527939
Source Step = 67.6227%
Source Step = 67.7827%
Source Step = 67.9427%
Source Step = 68.1027%
Source Step = 68.2626%
vernier = 0.00791909
Source Step = 68.4706%
Source Step = 68.7106%
Source Step = 68.9506%
Source Step = 69.1905%
Source Step = 69.4305%
vernier = 0.0118786
Source Step = 69.7305%
Source Step = 70.0904%
Source Step = 70.4504%
Source Step = 70.8103%
Source Step = 71.1703%
vernier = 0.0178179
Source Step = 71.6023%
Source Step = 72.1422%
Source Step = 72.6821%
Source Step = 73.2221%
Source Step = 73.762%
vernier = 0.0267269
Source Step = 74.3829%
Source Step = 75.1928%
Source Step = 76.0027%
Source Step = 76.8127%
Source Step = 77.6226%
vernier = 0.0400904
Source Step = 78.5135%
Source Step = 79.7283%
Source Step = 80.9432%
Source Step = 82.158%
Source Step = 83.3729%
vernier = 0.0601356
Source Step = 84.6485%
Source Step = 86.4708%
Source Step = 88.2931%
Source Step = 90.1154%
Source Step = 91.9377%
Source Step = 93.7599%
vernier = 0.0902034
Source Step = 96.4934%
Source Step = 99.2268%
Source stepping succeeded in finding the operating point.

Heightened Def Con from 0.00153697 to 0.00153697

Date: Tue Sep 17 18:37:36 2024
Total elapsed time: 30.457 seconds.

tnom = 27
temp = 27
method = modified trap
totiter = 447488
traniter = 433574
tranpoints = 166937
accept = 111568
rejected = 55370
matrix size = 133
fillins = 134
solver = Normal
Thread vector: 74.1/25.2[8] 23.0/7.3[8] 15.9/6.2[8] 0.6/2.1[1]  2592/500
Matrix Compiler1: 12.09 KB object code size  3.6/1.7/[0.9]
Matrix Compiler2: 15.44 KB object code size  4.0/6.1/[0.8]

