Circuit: * D:\UCT\OneDrive - University of Cape Town\EEE4022S\LTSpice\RxNew2.asc

WARNING: Less than two connections to node V--.  This node is used by V4.
Direct Newton iteration failed to find .op point.  (Use ".option noopiter" to skip.)
Starting Gmin stepping
Gmin = 10
Gmin = 1.07374
Gmin = 0.115292
Gmin = 0.0123794
Gmin = 0.00132923
Gmin = 0.000142725
Gmin = 1.5325e-005
Gmin = 1.6455e-006
Gmin = 1.76685e-007
Gmin = 1.89714e-008
Gmin = 2.03704e-009
Gmin = 2.18725e-010
Gmin = 2.34854e-011
Gmin = 2.52173e-012
Gmin = 2.70769e-013
Gmin = 0
Gmin stepping succeeded in finding the operating point.


Date: Sun Aug 25 23:26:48 2024
Total elapsed time: 0.372 seconds.

tnom = 27
temp = 27
method = modified trap
totiter = 30038
traniter = 29632
tranpoints = 14817
accept = 9617
rejected = 5200
matrix size = 26
fillins = 20
solver = Normal
Thread vector: 4.8/3.6[2] 1.2/1.5[1] 0.7/1.9[1] 0.1/0.8[1]  2592/500
Matrix Compiler1: 1.98 KB object code size  0.5/0.2/[0.1]
Matrix Compiler2: 2.43 KB object code size  0.2/0.3/[0.2]

