Circuit: * D:\UCT\OneDrive - University of Cape Town\EEE4022S\LTSpice\TxNew1.asc

WARNING: Less than two connections to node V--.  This node is used by V3.
WARNING: Less than two connections to node 3.3.  This node is used by V4.
Direct Newton iteration failed to find .op point.  (Use ".option noopiter" to skip.)
Starting Gmin stepping
Gmin = 10
Gmin = 1.07374
Gmin = 0.115292
Gmin = 0.0123794
Gmin = 0.00132923
Gmin = 0.000142725
Gmin = 1.5325e-005
Gmin = 1.6455e-006
Gmin = 1.76685e-007
vernier = 0.5
vernier = 0.25
vernier = 0.125
vernier = 0.0625
vernier = 0.03125
vernier = 0.015625
vernier = 0.0078125
vernier = 0.00390625
vernier = 0.00195313
Gmin = 1.76685e-007
vernier = 0.00260417
Gmin = 1.75681e-007
vernier = 0.00347222
vernier = 0.00462963
Gmin = 1.7405e-007
vernier = 0.00617283
vernier = 0.00823044
Gmin = 1.71497e-007
vernier = 0.0109739
Gmin = 1.67434e-007
vernier = 0.0146319
vernier = 0.0195092
Gmin = 1.60991e-007
vernier = 0.0260122
vernier = 0.034683
Gmin = 1.51294e-007
vernier = 0.046244
Gmin = 1.36809e-007
vernier = 0.0616586
vernier = 0.0822114
Gmin = 1.16079e-007
vernier = 0.109615
vernier = 0.146154
Gmin = 8.95811e-008
vernier = 0.194871
Gmin = 5.90196e-008
vernier = 0.259828
vernier = 0.346438
Gmin = 3.00694e-008
vernier = 0.461917
vernier = 0.615889
Gmin = 1.05424e-008
vernier = 0.821185
Gmin = 2.02532e-009
vernier = 1
Gmin = 2.25533e-010
Gmin = 2.42164e-011
Gmin = 2.60021e-012
Gmin = 2.79196e-013
Gmin = 0
Gmin stepping succeeded in finding the operating point.


Date: Sat Aug 24 18:54:49 2024
Total elapsed time: 0.178 seconds.

tnom = 27
temp = 27
method = modified trap
totiter = 4823
traniter = 3208
tranpoints = 1605
accept = 974
rejected = 631
matrix size = 41
fillins = 18
solver = Normal
Thread vector: 12.5/6.3[4] 2.7/4.6[1] 2.3/2.2[1] 0.1/1.2[1]  2592/500
Matrix Compiler1: 2.47 KB object code size  0.4/0.3/[0.1]
Matrix Compiler2: 3.45 KB object code size  0.3/0.5/[0.3]

