Circuit: * D:\UCT\OneDrive - University of Cape Town\EEE4022S\LTSpice\TxSallenKey.asc

WARNING: Less than two connections to node 3.3.  This node is used by V4.
Direct Newton iteration failed to find .op point.  (Use ".option noopiter" to skip.)
Starting Gmin stepping
Gmin = 10
Gmin = 1.07374
Gmin = 0.115292
Gmin = 0.0123794
Gmin = 0.00132923
Gmin = 0.000142725
Gmin = 1.5325e-005
Gmin = 1.6455e-006
Gmin = 1.76685e-007
vernier = 0.5
vernier = 0.25
vernier = 0.125
vernier = 0.0625
vernier = 0.03125
vernier = 0.015625
vernier = 0.0078125
vernier = 0.00390625
vernier = 0.00195313
Gmin = 1.76685e-007
vernier = 0.000976563
vernier = 0.000488281
Gmin = 0
Gmin stepping failed

Starting source stepping with srcstepmethod=0
Source Step = 3.0303%
Source Step = 33.3333%
Source Step = 63.6364%
Source Step = 72.7332%
Source Step = 72.7628%
Source Step = 72.7924%
Source Step = 72.822%
Source Step = 72.8516%
Source Step = 72.8812%
vernier = 0.00146484
Source Step = 72.9196%
Source Step = 72.964%
Source Step = 73.0084%
Source Step = 73.0528%
Source Step = 73.0972%
vernier = 0.00219727
Source Step = 73.1527%
Source Step = 73.2193%
Source Step = 73.2858%
Source Step = 73.3524%
Source Step = 73.419%
vernier = 0.0032959
Source Step = 73.4989%
Source Step = 73.5988%
Source Step = 73.6987%
Source Step = 73.7985%
Source Step = 73.8984%
vernier = 0.00494385
Source Step = 74.0133%
Source Step = 74.1631%
Source Step = 74.3129%
Source Step = 74.4627%
Source Step = 74.6125%
vernier = 0.00741577
Source Step = 74.7773%
Source Step = 75.002%
Source Step = 75.2268%
Source Step = 75.4515%
Source Step = 75.6762%
vernier = 0.0111237
Source Step = 75.9122%
Source Step = 76.2492%
Source Step = 76.5863%
Source Step = 76.9234%
Source Step = 77.2605%
Source Step = 77.5976%
vernier = 0.0166855
Source Step = 78.1032%
Source Step = 78.6088%
Source Step = 79.1144%
Source Step = 79.62%
Source Step = 80.1257%
vernier = 0.0250282
Source Step = 80.8588%
Source Step = 81.6172%
Source Step = 82.3757%
Source Step = 83.1341%
Source Step = 83.8925%
vernier = 0.0375423
Source Step = 84.9543%
Source Step = 86.092%
Source Step = 87.2296%
Source Step = 88.3673%
Source Step = 89.5049%
vernier = 0.0563135
Source Step = 91.0407%
Source Step = 92.7472%
Source Step = 94.4537%
Source Step = 96.1602%
Source Step = 97.8666%
vernier = 0.0844703
Source Step = 100%
Source stepping succeeded in finding the operating point.


Date: Thu Aug 29 18:32:49 2024
Total elapsed time: 0.234 seconds.

tnom = 27
temp = 27
method = modified trap
totiter = 8311
traniter = 3294
tranpoints = 1476
accept = 978
rejected = 498
matrix size = 32
fillins = 58
solver = Normal
Thread vector: 9.1/5.1[3] 3.1/3.1[1] 1.1/1.6[1] 0.1/0.9[1]  2592/500
Matrix Compiler1: 3.93 KB object code size  0.9/0.5/[0.2]
Matrix Compiler2: off  [0.3]/0.5/0.3

